Version,8.1;
GlobalGeometryRules,UpperLeftCorner,CounterClockWise,World;
Material,Brick,Rough,0.10,0.50,1800,840;
Material,Concrete,Rough,0.20,1.40,2200,900;
Material:NoMass,Insulation,Rough,2.5;
Material:AirGap,Cavity,0.18;
WindowMaterial:SimpleGlazingSystem,Glass,2.7,0.6,0.7;
Construction,Exterior,Brick,Insulation,Cavity;
Construction,Partition,Concrete;
Construction,Glazing,Glass;
Zone,West,0,0,0,0,1,1,3,36,12;
Zone,East,0,0,0,0,1,1,3,36,12;
BuildingSurface:Detailed,West Outside,Wall,Exterior,West,Outdoors,,SunExposed,WindExposed,0.5,4,0,0,0,0,4,0,0,4,3,0,0,3;
BuildingSurface:Detailed,West Partition,Wall,Partition,West,Surface,East Partition,NoSun,NoWind,0.5,4,4,0,0,4,4,0,4,4,3,4,0,3;
BuildingSurface:Detailed,East Partition,Wall,Partition,East,Surface,West Partition,NoSun,NoWind,0.5,4,4,4,0,4,0,0,4,0,3,4,4,3;
BuildingSurface:Detailed,East Outside,Wall,Exterior,East,Outdoors,,SunExposed,WindExposed,0.5,4,8,4,0,8,0,0,8,0,3,8,4,3;
BuildingSurface:Detailed,West Ground,Floor,Partition,West,Ground,,NoSun,NoWind,1,4,0,0,0,0,4,0,4,4,0,4,0,0;
BuildingSurface:Detailed,East Adiabatic,Roof,Partition,East,Adiabatic,,NoSun,NoWind,0,4,4,0,3,8,0,3,8,4,3,4,4,3;
FenestrationSurface:Detailed,West Window,Window,Glazing,West Outside,,0.5,,1,4,0,1,1,0,3,1,0,3,2,0,1,2;
InternalMass,West Furniture,Partition,West,6;
