Version,8.1;
GlobalGeometryRules,UpperLeftCorner,CounterClockWise,World;
Material,Brick,Rough,0.10,0.50,1800,840,0.9,0.7,0.7;
Construction,Wall Construction,Brick;
Zone,Room,0,0,0,0,1,1,3,30,10;
BuildingSurface:Detailed,
  South Wall,Wall,Wall Construction,Room,Outdoors,,SunExposed,WindExposed,0.5,4,
  0,0,0,
  4,0,0,
  4,0,3,
  0,0,3;
