Version,8.1;
GlobalGeometryRules,UpperLeftCorner,CounterClockWise,World;
Material,Brick,Rough,0.10,0.50,1800,840;
Construction,Opaque,Brick;
Zone,Room,0,0,0,0,1,1,3,36,12;
BuildingSurface:Detailed,South,Wall,Opaque,Room,Outdoors,,SunExposed,WindExposed,0.5,4,0,0,0,4,0,0,4,0,3,0,0,3;
BuildingSurface:Detailed,North,Wall,Opaque,Room,Outdoors,,SunExposed,WindExposed,0.5,4,4,4,0,0,4,0,0,4,3,4,4,3;
BuildingSurface:Detailed,Floor,Floor,Opaque,Room,Ground,,NoSun,NoWind,1,4,0,0,0,0,4,0,4,4,0,4,0,0;
BuildingSurface:Detailed,Roof,Roof,Opaque,Room,Outdoors,,SunExposed,WindExposed,0,4,0,0,3,4,0,3,4,4,3,0,4,3;
